Version 4
SHEET 1 1168 680
WIRE -272 -80 -272 -112
WIRE 560 64 560 48
WIRE 144 80 80 80
WIRE 560 80 560 64
WIRE 560 80 368 80
WIRE 656 80 560 80
WIRE 80 96 80 80
WIRE 656 96 656 80
WIRE 144 144 -352 144
WIRE 432 144 368 144
WIRE -352 160 -352 144
WIRE 112 208 32 208
WIRE 144 208 112 208
WIRE 432 208 432 144
WIRE 432 208 368 208
WIRE 656 208 656 176
WIRE 656 208 432 208
WIRE 32 224 32 208
WIRE 656 240 656 208
WIRE 144 272 144 256
WIRE 144 272 128 272
WIRE 416 272 368 272
WIRE -352 288 -352 240
WIRE 416 304 416 272
WIRE 32 336 32 304
WIRE 656 352 656 304
WIRE 416 400 416 368
FLAG 80 96 0
FLAG -272 -192 Vcc
FLAG 32 336 0
FLAG 128 272 Vcc
FLAG 416 400 0
FLAG 656 352 0
FLAG 560 64 Vcc
FLAG -352 288 0
FLAG -272 -80 0
FLAG 112 208 out
SYMBOL Misc\\NE555 256 176 R0
SYMATTR InstName U1
SYMBOL voltage -272 -208 R0
SYMATTR InstName V1
SYMATTR Value {Vcc}
SYMBOL voltage -352 144 R0
WINDOW 123 0 0 Left 2
WINDOW 39 0 0 Left 2
SYMATTR InstName V2
SYMATTR Value PULSE({Vcc} 0 0 0 0 10us 20ms)
SYMBOL res 16 208 R0
SYMATTR InstName R1
SYMATTR Value 11k
SYMBOL cap 400 304 R0
SYMATTR InstName C1
SYMATTR Value 100nF
SYMBOL res 640 80 R0
SYMATTR InstName R2
SYMATTR Value 11k
SYMBOL cap 640 240 R0
SYMATTR InstName C2
SYMATTR Value 1µ
TEXT 864 -104 Left 2 !.tran 100m
TEXT 864 -56 Left 2 !.param Vcc 5
TEXT 864 0 Left 2 !.step param Vcc list 4 8 16
